!!!!    6    0    1 1606092539  Vccc8                                         
vector cycle 10u
receive delay 9u

assign EN  to pins 8

assign MAR_SCL  to pins 6
assign MAR_SDA  to pins 5
assign PR0_SCL  to pins 3
assign PR0_SDA  to pins 4

assign VCC to pins 2
assign REF to pins 7
assign GND to pins 1

family LVT
power   VCC,GND
nondigital REF
inputs EN

bidirectional MAR_SCL,MAR_SDA,PR0_SCL,PR0_SDA

disable MAR_SCL,MAR_SDA,PR0_SCL,PR0_SDA with EN to "0"

pcf order default SCAN is EN, MAR_SCL,MAR_SDA,PR0_SCL,PR0_SDA

unit    "Func Test"
pcf
  "1 10 HL"
  "1 01 LH"
  "1 HL 10"
  "1 LH 01"
  "0 HH 00"
end pcf
end unit

! End test

